@<TRIPOS>MOLECULE
LIG
	18	17	1
SMALL
USER_CHARGES
@<TRIPOS>ATOM
   1   H6       -0.8770    0.7150    2.1470   ho 0 LIG  0.4990
   2   O1       -0.7780    1.7300    2.2500   oh 0 LIG -0.6271
   3   C1        0.1240    2.1790    1.3730    c 0 LIG  0.6441
   4  OXT        0.3230    3.3750    1.2400    o 0 LIG -0.5700
   5   CA        0.9020    1.1140    0.5730   c3 0 LIG -0.0083
   6   H5        1.4000    1.6530   -0.2360   h1 0 LIG  0.0907
   7   CB        0.0000    0.0000    0.0000   c3 0 LIG  0.0249
   8   H7       -0.7980    0.4700   -0.5880   h1 0 LIG  0.0327
   9   H8        0.6070   -0.5960   -0.6900   h1 0 LIG  0.0327
  10   N1        1.9520    0.5400    1.4070    n 0 LIG -0.5299
  11   H4        1.6500   -0.2360    1.9910   hn 0 LIG  0.3505
  12   CT        3.2800    0.7720    1.2170    c 0 LIG  0.6471
  13   OT        3.7120    1.5960    0.4060    o 0 LIG -0.6451
  14   CM        4.1980   -0.0840    2.0760   c3 0 LIG -0.1731
  15   H1        4.2070   -1.1160    1.7030   hc 0 LIG  0.0554
  16   H2        5.2130    0.3160    2.0250   hc 0 LIG  0.0554
  17   H3        3.8680   -0.1090    3.1200   hc 0 LIG  0.0554
  18   ST        1.6844   -0.4619    0.4351    S 0 LIG -0.9323
@<TRIPOS>BOND
    1     1     2  1
    2     2     3  1
    3     3     4  2
    4     3     5  1
    5     5     6  1
    6     5     7  1
    7     5    10  1
    8     7     8  1
    9     7     9  1
   10    10    11  1
   11    10    12  1
   12    12    13  2
   13    12    14  1
   14    14    15  1
   15    14    16  1
   16    14    17  1
   17    18     7  1
@<TRIPOS>SUBSTRUCTURE
	1 LIG			1 ****			0 ****  ****
