#
# Generated by PyRED version JAN-2025
#     http://q4md-forcefieldtools.org
#
@<TRIPOS>MOLECULE
UNK
     3     2     1     0     1
SMALL
USER_CHARGES
@<TRIPOS>ATOM
   1 O1    -0.000000   0.000000   0.116968 OH   1   UNK -0.7994  0.0000 ****
   2 H1     0.000000   0.764641  -0.467871 HO   1   UNK  0.3997  0.0000 ****
   3 H2    -0.000000  -0.764641  -0.467871 HO   1   UNK  0.3997  0.0000 ****
@<TRIPOS>BOND
    1     1     2 1
    2     1     3 1
@<TRIPOS>SUBSTRUCTURE
      1 UNK               1 ****               0 ****  ****
@<TRIPOS>HEADTAIL
0 0
0 0
@<TRIPOS>RESIDUECONNECT
1 0 0 0 0 0 0
