@<TRIPOS>MOLECULE
AUS
   39    37     1     0     0
SMALL
bcc


@<TRIPOS>ATOM
      1 AuS         37.6300    40.0900    41.7800 Au         2 AUS       0.030000
      2 AuS         40.5200    40.0500    42.7200 Au        10 AUS       0.031000
      3 AuL         38.2500    39.2600    44.5900 Au        12 AUL       0.344000
      4 H11         40.4600    39.2300    47.0800 ho        27 _KD       0.565000
      5 O11         40.5800    39.1500    48.0400 oh        27 _KD      -0.830100
      6 C2          41.7600    39.7800    48.1000 c         27 _KD       0.961100
      7 O2          42.1900    40.1800    49.1600 o         27 _KD      -0.680000
      8 CA          42.5000    39.8500    46.7900 c3        27 _KD      -0.020300
      9 HA          43.4000    40.3900    47.0800 h1        27 _KD       0.157700
     10 CB          41.5800    40.4500    45.6700 c3        27 _KD      -0.016300
     11 HB2         40.9000    41.1700    46.1500 h1        27 _KD       0.129700
     12 HB3         42.1600    40.9600    44.8800 h1        27 _KD       0.129700
     13 N1          43.0200    38.5400    46.2900 n         27 _KD      -0.717900
     14 H1          42.6600    38.3300    45.3700 hn        27 _KD       0.381500
     15 C1          43.3900    37.5100    47.0300 c         27 _KD       1.008100
     16 O1          43.7100    37.4800    48.2200 o         27 _KD      -0.793100
     17 CH3         43.2800    36.1700    46.2800 c3        27 _KD      -0.547100
     18 HH31        43.1200    35.3700    47.0100 hc        27 _KD       0.154700
     19 HH32        42.4500    36.1600    45.5600 hc        27 _KD       0.154700
     20 HH33        44.2100    36.0400    45.7300 hc        27 _KD       0.154700
     21 ST          40.5000    39.1600    45.0100 ss        27 _KD      -0.987100
     22 H11         36.2100    37.9800    48.7800 ho        39 _KD       0.571000
     23 O11         35.4000    37.8400    49.3000 oh        39 _KD      -0.826100
     24 C2          34.5400    38.6000    48.6200 c         39 _KD       0.928100
     25 O2          33.4300    38.7500    49.0700 o         39 _KD      -0.660000
     26 CA          35.1500    39.1800    47.3200 c3        39 _KD      -0.001300
     27 HA          34.6200    40.1000    47.0100 h1        39 _KD       0.139700
     28 CB          35.0800    38.2600    46.1000 c3        39 _KD      -0.140100
     29 HB2         35.6300    37.3500    46.4100 h1        39 _KD       0.135200
     30 HB3         34.0700    37.9300    45.8600 h1        39 _KD       0.135200
     31 N1          36.5900    39.5300    47.4700 n         39 _KD      -0.737900
     32 H1          37.0800    39.4100    46.5900 hn        39 _KD       0.386500
     33 C1          37.1000    40.5000    48.3500 c         39 _KD       1.023100
     34 O1          36.6000    40.5500    49.4600 o         39 _KD      -0.811100
     35 CH3         38.2500    41.3800    47.8900 c3        39 _KD      -0.552100
     36 HH31        39.0300    41.4100    48.6500 hc        39 _KD       0.180700
     37 HH32        38.7400    41.0100    46.9800 hc        39 _KD       0.180700
     38 HH33        37.9400    42.4400    47.7900 hc        39 _KD       0.180700
     39 ST          35.9600    39.1000    44.6600 s         39 _KD      -0.745300
@<TRIPOS>BOND
     1     1     2 1   
     2     2     3 1   
     3     3    21 1   
     4     4     5 1   
     5     5     6 1   
     6     6     7 2   
     7     6     8 1   
     8     8     9 1   
     9     8    10 1   
    10     8    13 1   
    11    10    11 1   
    12    10    12 1   
    13    10    21 1   
    14    13    14 1   
    15    13    15 1   
    16    15    16 2   
    17    15    17 1   
    18    17    18 1   
    19    17    19 1   
    20    17    20 1   
    21    22    23 1   
    22    23    24 1   
    23    24    25 2   
    24    24    26 1   
    25    26    27 1   
    26    26    28 1   
    27    26    31 1   
    28    28    29 1   
    29    28    30 1   
    30    28    39 1   
    31    31    32 1   
    32    31    33 1   
    33    33    34 2   
    34    33    35 1   
    35    35    36 1   
    36    35    37 1   
    37    35    38 1   
@<TRIPOS>SUBSTRUCTURE
     1 AUS         1 TEMP              0 ****  ****    0 ROOT
