@<TRIPOS>MOLECULE
LIG
   18    17     1     0     0
SMALL
bcc


@<TRIPOS>ATOM
      1 H6          -1.9830    -0.0630     0.9610 ho         0 LIG       0.499000
      2 O1          -1.8840     0.9520     1.0640 oh         0 LIG      -0.627100
      3 C1          -0.9820     1.4010     0.1870 c          0 LIG       0.644100
      4 OXT         -0.7830     2.5970     0.0540 o          0 LIG      -0.570000
      5 CA          -0.2040     0.3360    -0.6130 c3         0 LIG      -0.008300
      6 H5           0.2940     0.8750    -1.4220 h1         0 LIG       0.090700
      7 CB          -1.1060    -0.7780    -1.1860 c3         0 LIG       0.024900
      8 H7          -1.9040    -0.3080    -1.7740 h1         0 LIG       0.032700
      9 H8          -0.4990    -1.3740    -1.8760 h1         0 LIG       0.032700
     10 SG          -1.8370    -1.8840     0.1160 s          0 LIG      -0.932300
     11 N1           0.8460    -0.2380     0.2210 n          0 LIG      -0.529900
     12 H4           0.5440    -1.0140     0.8050 hn         0 LIG       0.350500
     13 CT           2.1740    -0.0060     0.0310 c          0 LIG       0.647100
     14 OT           2.6060     0.8180    -0.7800 o          0 LIG      -0.645100
     15 CM           3.0920    -0.8620     0.8900 c3         0 LIG      -0.173100
     16 H1           3.1010    -1.8940     0.5170 hc         0 LIG       0.055367
     17 H2           4.1070    -0.4620     0.8390 hc         0 LIG       0.055367
     18 H3           2.7620    -0.8870     1.9340 hc         0 LIG       0.055367
@<TRIPOS>BOND
     1     1     2 1   
     2     2     3 1   
     3     3     4 2   
     4     3     5 1   
     5     5     6 1   
     6     5     7 1   
     7     5    11 1   
     8     7     8 1   
     9     7     9 1   
    10     7    10 1   
    11    11    12 1   
    12    11    13 1   
    13    13    14 2   
    14    13    15 1   
    15    15    16 1   
    16    15    17 1   
    17    15    18 1   
@<TRIPOS>SUBSTRUCTURE
     1 LIG         1 TEMP              0 ****  ****    0 ROOT
