@<TRIPOS>MOLECULE
_KD
   36    34     1     0     0
SMALL
bcc


@<TRIPOS>ATOM
      1 H11         40.4600    39.2300    47.0800 ho        27 _KD       0.456000
      2 O11         40.5800    39.1500    48.0400 oh        27 _KD      -0.581600
      3 C2          41.7600    39.7800    48.1000 c         27 _KD       0.617600
      4 O2          42.1900    40.1800    49.1600 o         27 _KD      -0.508500
      5 CA          42.5000    39.8500    46.7900 c3        27 _KD       0.023200
      6 HA          43.4000    40.3900    47.0800 h1        27 _KD       0.119200
      7 CB          41.5800    40.4500    45.6700 c3        27 _KD      -0.145600
      8 HB2         40.9000    41.1700    46.1500 h1        27 _KD       0.105950
      9 HB3         42.1600    40.9600    44.8800 h1        27 _KD       0.105950
     10 N1          43.0200    38.5400    46.2900 n         27 _KD      -0.580400
     11 H1          42.6600    38.3300    45.3700 hn        27 _KD       0.333500
     12 C1          43.3900    37.5100    47.0300 c         27 _KD       0.663100
     13 O1          43.7100    37.4800    48.2200 o         27 _KD      -0.609100
     14 CH3         43.2800    36.1700    46.2800 c3        27 _KD      -0.173100
     15 HH31        43.1200    35.3700    47.0100 hc        27 _KD       0.076533
     16 HH32        42.4500    36.1600    45.5600 hc        27 _KD       0.076533
     17 HH33        44.2100    36.0400    45.7300 hc        27 _KD       0.076533
     18 ST          40.5000    39.1600    45.0100 s         27 _KD      -0.054800
     19 H11         36.2100    37.9800    48.7800 ho        39 _KD       0.456000
     20 O11         35.4000    37.8400    49.3000 oh        39 _KD      -0.581600
     21 C2          34.5400    38.6000    48.6200 c         39 _KD       0.617600
     22 O2          33.4300    38.7500    49.0700 o         39 _KD      -0.508500
     23 CA          35.1500    39.1800    47.3200 c3        39 _KD       0.023200
     24 HA          34.6200    40.1000    47.0100 h1        39 _KD       0.119200
     25 CB          35.0800    38.2600    46.1000 c3        39 _KD      -0.145600
     26 HB2         35.6300    37.3500    46.4100 h1        39 _KD       0.105950
     27 HB3         34.0700    37.9300    45.8600 h1        39 _KD       0.105950
     28 N1          36.5900    39.5300    47.4700 n         39 _KD      -0.580400
     29 H1          37.0800    39.4100    46.5900 hn        39 _KD       0.333500
     30 C1          37.1000    40.5000    48.3500 c         39 _KD       0.663100
     31 O1          36.6000    40.5500    49.4600 o         39 _KD      -0.609100
     32 CH3         38.2500    41.3800    47.8900 c3        39 _KD      -0.173100
     33 HH31        39.0300    41.4100    48.6500 hc        39 _KD       0.076533
     34 HH32        38.7400    41.0100    46.9800 hc        39 _KD       0.076533
     35 HH33        37.9400    42.4400    47.7900 hc        39 _KD       0.076533
     36 ST          35.9600    39.1000    44.6600 s         39 _KD      -0.054800
     37 AUS        37.630     40.090     41.780  Au        2 AUS       0 
     38 AUS        40.520     40.050     42.720  Au        10 AUL       0
     39 AUL        38.250     39.260    44.590   Au        12 AUL       -1
@<TRIPOS>BOND
     1     1     2 1   
     2     2     3 1   
     3     3     4 2   
     4     3     5 1   
     5     5     6 1   
     6     5     7 1   
     7     5    10 1   
     8     7     8 1   
     9     7     9 1   
    10     7    18 1   
    11    10    11 1   
    12    10    12 1   
    13    12    13 2   
    14    12    14 1   
    15    14    15 1   
    16    14    16 1   
    17    14    17 1   
    18    19    20 1   
    19    20    21 1   
    20    21    22 2   
    21    21    23 1   
    22    23    24 1   
    23    23    25 1   
    24    23    28 1   
    25    25    26 1   
    26    25    27 1   
    27    25    36 1   
    28    28    29 1   
    29    28    30 1   
    30    30    31 2   
    31    30    32 1   
    32    32    33 1   
    33    32    34 1   
    34    32    35 1   
@<TRIPOS>SUBSTRUCTURE
     1 _KD         1 TEMP              0 ****  ****    0 ROOT
